/*--------------------------------*- C++ -*----------------------------------*\
| =========                 |                                                 |
| \\      /  F ield         | OpenFOAM: The Open Source CFD Toolbox           |
|  \\    /   O peration     | Version:  1.5                                   |
|   \\  /    A nd           | Web:      http://www.OpenFOAM.org               |
|    \\/     M anipulation  |                                                 |
\*---------------------------------------------------------------------------*/
FoamFile
{
    version     2.0;
    format      ascii;
    class       dictionary;
    object      loggingProperties;
}
// * * * * * * * * * * * * * * * * * * * * * * * * * * * * * * * * * * * * * //

surfaceElevationAnyName
{
    type waveGauge;

    writeControl  timeStep;
    writeInterval 40;

    add       ( 0 0 0.7);
    axis      z;

    pointDistribution userDefinedDistribution;
    N 753;

    xValues nonuniform 753
    (
      -4.45000000000000
      -4.42500000000000
      -4.40000000000000
      -4.37500000000000
      -4.35000000000000
      -4.32500000000000
      -4.30000000000000
      -4.27500000000000
      -4.25000000000000
      -4.22500000000000
      -4.20000000000000
      -4.17500000000000
      -4.15000000000000
      -4.12500000000000
      -4.10000000000000
      -4.07500000000000
      -4.05000000000000
      -4.02500000000000
      -4
      -3.97500000000000
      -3.95000000000000
      -3.92500000000000
      -3.90000000000000
      -3.87500000000000
      -3.85000000000000
      -3.82500000000000
      -3.80000000000000
      -3.77500000000000
      -3.75000000000000
      -3.72500000000000
      -3.70000000000000
      -3.67500000000000
      -3.65000000000000
      -3.62500000000000
      -3.60000000000000
      -3.57500000000000
      -3.55000000000000
      -3.52500000000000
      -3.50000000000000
      -3.47500000000000
      -3.45000000000000
      -3.42500000000000
      -3.40000000000000
      -3.37500000000000
      -3.35000000000000
      -3.32500000000000
      -3.30000000000000
      -3.27500000000000
      -3.25000000000000
      -3.22500000000000
      -3.20000000000000
      -3.17500000000000
      -3.15000000000000
      -3.12500000000000
      -3.10000000000000
      -3.07500000000000
      -3.05000000000000
      -3.02500000000000
      -3
      -2.97500000000000
      -2.95000000000000
      -2.92500000000000
      -2.90000000000000
      -2.87500000000000
      -2.85000000000000
      -2.82500000000000
      -2.80000000000000
      -2.77500000000000
      -2.75000000000000
      -2.72500000000000
      -2.70000000000000
      -2.67500000000000
      -2.65000000000000
      -2.62500000000000
      -2.60000000000000
      -2.57500000000000
      -2.55000000000000
      -2.52500000000000
      -2.50000000000000
      -2.47500000000000
      -2.45000000000000
      -2.42500000000000
      -2.40000000000000
      -2.37500000000000
      -2.35000000000000
      -2.32500000000000
      -2.30000000000000
      -2.27500000000000
      -2.25000000000000
      -2.22500000000000
      -2.20000000000000
      -2.17500000000000
      -2.15000000000000
      -2.12500000000000
      -2.10000000000000
      -2.07500000000000
      -2.05000000000000
      -2.02500000000000
      -2
      -1.97500000000000
      -1.95000000000000
      -1.92500000000000
      -1.90000000000000
      -1.87500000000000
      -1.85000000000000
      -1.82500000000000
      -1.80000000000000
      -1.77500000000000
      -1.75000000000000
      -1.72500000000000
      -1.70000000000000
      -1.67500000000000
      -1.65000000000000
      -1.62500000000000
      -1.60000000000000
      -1.57500000000000
      -1.55000000000000
      -1.52500000000000
      -1.50000000000000
      -1.47500000000000
      -1.45000000000000
      -1.42500000000000
      -1.40000000000000
      -1.37500000000000
      -1.35000000000000
      -1.32500000000000
      -1.30000000000000
      -1.27500000000000
      -1.25000000000000
      -1.22500000000000
      -1.20000000000000
      -1.17500000000000
      -1.15000000000000
      -1.12500000000000
      -1.10000000000000
      -1.07500000000000
      -1.05000000000000
      -1.02500000000000
      -1
      -0.975000000000000
      -0.950000000000000
      -0.925000000000000
      -0.900000000000000
      -0.875000000000000
      -0.850000000000000
      -0.825000000000000
      -0.800000000000000
      -0.775000000000000
      -0.750000000000000
      -0.725000000000000
      -0.700000000000000
      -0.675000000000000
      -0.650000000000000
      -0.625000000000000
      -0.600000000000000
      -0.575000000000000
      -0.550000000000000
      -0.525000000000000
      -0.500000000000000
      -0.475000000000000
      -0.450000000000000
      -0.425000000000000
      -0.400000000000000
      -0.375000000000000
      -0.350000000000000
      -0.325000000000000
      -0.300000000000000
      -0.275000000000000
      -0.250000000000000
      -0.225000000000000
      -0.200000000000000
      -0.175000000000000
      -0.150000000000000
      -0.125000000000000
      -0.0999999999999996
      -0.0750000000000002
      -0.0499999999999998
      -0.0250000000000004
      0
      0.0250000000000004
      0.0499999999999998
      0.0750000000000002
      0.0999999999999996
      0.125000000000000
      0.150000000000000
      0.175000000000000
      0.200000000000000
      0.225000000000000
      0.250000000000000
      0.275000000000000
      0.300000000000000
      0.325000000000000
      0.350000000000001
      0.375000000000000
      0.400000000000000
      0.425000000000000
      0.450000000000000
      0.475000000000001
      0.500000000000000
      0.525000000000000
      0.550000000000000
      0.575000000000000
      0.600000000000001
      0.625000000000000
      0.650000000000000
      0.675000000000000
      0.700000000000000
      0.725000000000001
      0.750000000000000
      0.775000000000000
      0.800000000000000
      0.825000000000000
      0.850000000000001
      0.875000000000000
      0.900000000000000
      0.925000000000000
      0.950000000000000
      0.975000000000001
      1
      1.02500000000000
      1.05000000000000
      1.07500000000000
      1.10000000000000
      1.12500000000000
      1.15000000000000
      1.17500000000000
      1.20000000000000
      1.22500000000000
      1.25000000000000
      1.27500000000000
      1.30000000000000
      1.32500000000000
      1.35000000000000
      1.37500000000000
      1.40000000000000
      1.42500000000000
      1.45000000000000
      1.47500000000000
      1.50000000000000
      1.52500000000000
      1.55000000000000
      1.57500000000000
      1.60000000000000
      1.62500000000000
      1.65000000000000
      1.67500000000000
      1.70000000000000
      1.72500000000000
      1.75000000000000
      1.77500000000000
      1.80000000000000
      1.82500000000000
      1.85000000000000
      1.87500000000000
      1.90000000000000
      1.92500000000000
      1.95000000000000
      1.97500000000000
      2
      2.02500000000000
      2.05000000000000
      2.07500000000000
      2.10000000000000
      2.12500000000000
      2.15000000000000
      2.17500000000000
      2.20000000000000
      2.22500000000000
      2.25000000000000
      2.27500000000000
      2.30000000000000
      2.32500000000000
      2.35000000000000
      2.37500000000000
      2.40000000000000
      2.42500000000000
      2.45000000000000
      2.47500000000000
      2.50000000000000
      2.52500000000000
      2.55000000000000
      2.57500000000000
      2.60000000000000
      2.62500000000000
      2.65000000000000
      2.67500000000000
      2.70000000000000
      2.72500000000000
      2.75000000000000
      2.77500000000000
      2.80000000000000
      2.82500000000000
      2.85000000000000
      2.87500000000000
      2.90000000000000
      2.92500000000000
      2.95000000000000
      2.97500000000000
      3
      3.02500000000000
      3.05000000000000
      3.07500000000000
      3.10000000000000
      3.12500000000000
      3.15000000000000
      3.17500000000000
      3.20000000000000
      3.22500000000000
      3.25000000000000
      3.27500000000000
      3.30000000000000
      3.32500000000000
      3.35000000000000
      3.37500000000000
      3.40000000000000
      3.42500000000000
      3.45000000000000
      3.47500000000000
      3.50000000000000
      3.52500000000000
      3.55000000000000
      3.57500000000000
      3.60000000000000
      3.62500000000000
      3.65000000000000
      3.67500000000000
      3.70000000000000
      3.72500000000000
      3.75000000000000
      3.77500000000000
      3.80000000000000
      3.82500000000000
      3.85000000000000
      3.87500000000000
      3.90000000000000
      3.92500000000000
      3.95000000000000
      3.97500000000000
      4.00000000000000
      4.02500000000000
      4.05000000000000
      4.07500000000000
      4.10000000000000
      4.12500000000000
      4.15000000000000
      4.17500000000000
      4.20000000000000
      4.22500000000000
      4.25000000000000
      4.27500000000000
      4.30000000000000
      4.32500000000000
      4.35000000000000
      4.37500000000000
      4.40000000000000
      4.42500000000000
      4.45000000000000
      4.47500000000000
      4.50000000000000
      4.52500000000000
      4.55000000000000
      4.57500000000000
      4.60000000000000
      4.62500000000000
      4.65000000000000
      4.67500000000000
      4.70000000000000
      4.72500000000000
      4.75000000000000
      4.77500000000000
      4.80000000000000
      4.82500000000000
      4.85000000000000
      4.87500000000000
      4.90000000000000
      4.92500000000000
      4.95000000000000
      4.97500000000000
      5
      5.02500000000000
      5.05000000000000
      5.07500000000000
      5.10000000000000
      5.12500000000000
      5.15000000000000
      5.17500000000000
      5.20000000000000
      5.22500000000000
      5.25000000000000
      5.27500000000000
      5.30000000000000
      5.32500000000000
      5.35000000000000
      5.37500000000000
      5.40000000000000
      5.42500000000000
      5.45000000000000
      5.47500000000000
      5.50000000000000
      5.52500000000000
      5.55000000000000
      5.57500000000000
      5.60000000000000
      5.62500000000000
      5.65000000000000
      5.67500000000000
      5.70000000000000
      5.72500000000000
      5.75000000000000
      5.77500000000000
      5.80000000000000
      5.82500000000000
      5.85000000000000
      5.87500000000000
      5.90000000000000
      5.92500000000000
      5.95000000000000
      5.97500000000000
      6
      6.02500000000000
      6.05000000000000
      6.07500000000000
      6.10000000000000
      6.12500000000000
      6.15000000000000
      6.17500000000000
      6.20000000000000
      6.22500000000000
      6.25000000000000
      6.27500000000000
      6.30000000000000
      6.32500000000000
      6.35000000000000
      6.37500000000000
      6.40000000000000
      6.42500000000000
      6.45000000000000
      6.47500000000000
      6.50000000000000
      6.52500000000000
      6.55000000000000
      6.57500000000000
      6.60000000000000
      6.62500000000000
      6.65000000000000
      6.67500000000000
      6.70000000000000
      6.72500000000000
      6.75000000000000
      6.77500000000000
      6.80000000000000
      6.82500000000000
      6.85000000000000
      6.87500000000000
      6.90000000000000
      6.92500000000000
      6.95000000000000
      6.97500000000000
      7.00000000000000
      7.02500000000000
      7.05000000000000
      7.07500000000000
      7.10000000000000
      7.12500000000000
      7.15000000000000
      7.17500000000000
      7.20000000000000
      7.22500000000000
      7.25000000000000
      7.27500000000000
      7.30000000000000
      7.32500000000000
      7.35000000000000
      7.37500000000000
      7.40000000000000
      7.42500000000000
      7.45000000000000
      7.47500000000000
      7.50000000000000
      7.52500000000000
      7.55000000000000
      7.57500000000000
      7.60000000000000
      7.62500000000000
      7.65000000000000
      7.67500000000000
      7.70000000000000
      7.72500000000000
      7.75000000000000
      7.77500000000000
      7.80000000000000
      7.82500000000000
      7.85000000000000
      7.87500000000000
      7.90000000000000
      7.92500000000000
      7.95000000000000
      7.97500000000000
      8.00000000000000
      8.02500000000000
      8.05000000000000
      8.07500000000000
      8.10000000000000
      8.12500000000000
      8.15000000000000
      8.17500000000000
      8.20000000000000
      8.22500000000000
      8.25000000000000
      8.27500000000000
      8.30000000000000
      8.32500000000000
      8.35000000000000
      8.37500000000000
      8.40000000000000
      8.42500000000000
      8.45000000000000
      8.47500000000000
      8.50000000000000
      8.52500000000000
      8.55000000000000
      8.57500000000000
      8.60000000000000
      8.62500000000000
      8.65000000000000
      8.67500000000000
      8.70000000000000
      8.72500000000000
      8.75000000000000
      8.77500000000000
      8.80000000000000
      8.82500000000000
      8.85000000000000
      8.87500000000000
      8.90000000000000
      8.92500000000000
      8.95000000000000
      8.97500000000000
      9
      9.02500000000000
      9.05000000000000
      9.07500000000000
      9.10000000000000
      9.12500000000000
      9.15000000000000
      9.17500000000000
      9.20000000000000
      9.22500000000000
      9.25000000000000
      9.27500000000000
      9.30000000000000
      9.32500000000000
      9.35000000000000
      9.37500000000000
      9.40000000000000
      9.42500000000000
      9.45000000000000
      9.47500000000000
      9.50000000000000
      9.52500000000000
      9.55000000000000
      9.57500000000000
      9.60000000000000
      9.62500000000000
      9.65000000000000
      9.67500000000000
      9.70000000000000
      9.72500000000000
      9.75000000000000
      9.77500000000000
      9.80000000000000
      9.82500000000000
      9.85000000000000
      9.87500000000000
      9.90000000000000
      9.92500000000000
      9.95000000000000
      9.97500000000000
      10
      10.0250000000000
      10.0500000000000
      10.0750000000000
      10.1000000000000
      10.1250000000000
      10.1500000000000
      10.1750000000000
      10.2000000000000
      10.2250000000000
      10.2500000000000
      10.2750000000000
      10.3000000000000
      10.3250000000000
      10.3500000000000
      10.3750000000000
      10.4000000000000
      10.4250000000000
      10.4500000000000
      10.4750000000000
      10.5000000000000
      10.5250000000000
      10.5500000000000
      10.5750000000000
      10.6000000000000
      10.6250000000000
      10.6500000000000
      10.6750000000000
      10.7000000000000
      10.7250000000000
      10.7500000000000
      10.7750000000000
      10.8000000000000
      10.8250000000000
      10.8500000000000
      10.8750000000000
      10.9000000000000
      10.9250000000000
      10.9500000000000
      10.9750000000000
      11
      11.0250000000000
      11.0500000000000
      11.0750000000000
      11.1000000000000
      11.1250000000000
      11.1500000000000
      11.1750000000000
      11.2000000000000
      11.2250000000000
      11.2500000000000
      11.2750000000000
      11.3000000000000
      11.3250000000000
      11.3500000000000
      11.3750000000000
      11.4000000000000
      11.4250000000000
      11.4500000000000
      11.4750000000000
      11.5000000000000
      11.5250000000000
      11.5500000000000
      11.5750000000000
      11.6000000000000
      11.6250000000000
      11.6500000000000
      11.6750000000000
      11.7000000000000
      11.7250000000000
      11.7500000000000
      11.7750000000000
      11.8000000000000
      11.8250000000000
      11.8500000000000
      11.8750000000000
      11.9000000000000
      11.9250000000000
      11.9500000000000
      11.9750000000000
      12
      12.0250000000000
      12.0500000000000
      12.0750000000000
      12.1000000000000
      12.1250000000000
      12.1500000000000
      12.1750000000000
      12.2000000000000
      12.2250000000000
      12.2500000000000
      12.2750000000000
      12.3000000000000
      12.3250000000000
      12.3500000000000
      12.3750000000000
      12.4000000000000
      12.4250000000000
      12.4500000000000
      12.4750000000000
      12.5000000000000
      12.5250000000000
      12.5500000000000
      12.5750000000000
      12.6000000000000
      12.6250000000000
      12.6500000000000
      12.6750000000000
      12.7000000000000
      12.7250000000000
      12.7500000000000
      12.7750000000000
      12.8000000000000
      12.8250000000000
      12.8500000000000
      12.8750000000000
      12.9000000000000
      12.9250000000000
      12.9500000000000
      12.9750000000000
      13
      13.0250000000000
      13.0500000000000
      13.0750000000000
      13.1000000000000
      13.1250000000000
      13.1500000000000
      13.1750000000000
      13.2000000000000
      13.2250000000000
      13.2500000000000
      13.2750000000000
      13.3000000000000
      13.3250000000000
      13.3500000000000
      13.3750000000000
      13.4000000000000
      13.4250000000000
      13.4500000000000
      13.4750000000000
      13.5000000000000
      13.5250000000000
      13.5500000000000
      13.5750000000000
      13.6000000000000
      13.6250000000000
      13.6500000000000
      13.6750000000000
      13.7000000000000
      13.7250000000000
      13.7500000000000
      13.7750000000000
      13.8000000000000
      13.8250000000000
      13.8500000000000
      13.8750000000000
      13.9000000000000
      13.9250000000000
      13.9500000000000
      13.9750000000000
      14
      14.0250000000000
      14.0500000000000
      14.0750000000000
      14.1000000000000
      14.1250000000000
      14.1500000000000
      14.1750000000000
      14.2000000000000
      14.2250000000000
      14.2500000000000
      14.2750000000000
      14.3000000000000
      14.3250000000000
      14.3500000000000
    );

    zValues nonuniform 753
    (
      -0.399900000000000
      -0.399900000000000
      -0.399900000000000
      -0.399900000000000
      -0.399900000000000
      -0.399900000000000
      -0.399900000000000
      -0.399900000000000
      -0.399900000000000
      -0.399900000000000
      -0.399900000000000
      -0.399900000000000
      -0.399900000000000
      -0.399900000000000
      -0.399900000000000
      -0.399900000000000
      -0.399900000000000
      -0.399900000000000
      -0.399900000000000
      -0.399900000000000
      -0.399900000000000
      -0.399900000000000
      -0.399900000000000
      -0.399900000000000
      -0.399900000000000
      -0.399900000000000
      -0.399900000000000
      -0.399900000000000
      -0.399900000000000
      -0.399900000000000
      -0.399900000000000
      -0.399900000000000
      -0.399900000000000
      -0.399900000000000
      -0.399900000000000
      -0.399900000000000
      -0.399900000000000
      -0.399900000000000
      -0.399900000000000
      -0.399900000000000
      -0.399900000000000
      -0.399900000000000
      -0.399900000000000
      -0.399900000000000
      -0.399900000000000
      -0.399900000000000
      -0.399900000000000
      -0.399900000000000
      -0.399900000000000
      -0.399900000000000
      -0.399900000000000
      -0.399900000000000
      -0.399900000000000
      -0.399900000000000
      -0.399900000000000
      -0.399900000000000
      -0.399900000000000
      -0.399900000000000
      -0.399900000000000
      -0.399900000000000
      -0.399900000000000
      -0.399900000000000
      -0.399900000000000
      -0.399900000000000
      -0.399900000000000
      -0.399900000000000
      -0.399900000000000
      -0.399900000000000
      -0.399900000000000
      -0.399900000000000
      -0.399900000000000
      -0.399900000000000
      -0.399900000000000
      -0.399900000000000
      -0.399900000000000
      -0.399900000000000
      -0.399900000000000
      -0.399900000000000
      -0.399900000000000
      -0.399900000000000
      -0.399900000000000
      -0.399900000000000
      -0.399900000000000
      -0.399900000000000
      -0.399900000000000
      -0.399900000000000
      -0.399900000000000
      -0.399900000000000
      -0.399900000000000
      -0.399900000000000
      -0.399900000000000
      -0.399900000000000
      -0.399900000000000
      -0.399900000000000
      -0.399900000000000
      -0.399900000000000
      -0.399900000000000
      -0.399900000000000
      -0.399900000000000
      -0.399900000000000
      -0.399900000000000
      -0.399900000000000
      -0.399900000000000
      -0.399900000000000
      -0.399900000000000
      -0.399900000000000
      -0.399900000000000
      -0.399900000000000
      -0.399900000000000
      -0.399900000000000
      -0.399900000000000
      -0.399900000000000
      -0.399900000000000
      -0.399900000000000
      -0.399900000000000
      -0.399900000000000
      -0.399900000000000
      -0.399900000000000
      -0.399900000000000
      -0.399900000000000
      -0.399900000000000
      -0.399900000000000
      -0.399900000000000
      -0.399900000000000
      -0.399900000000000
      -0.399900000000000
      -0.399900000000000
      -0.399900000000000
      -0.399900000000000
      -0.399900000000000
      -0.399900000000000
      -0.399900000000000
      -0.399900000000000
      -0.399900000000000
      -0.399900000000000
      -0.399900000000000
      -0.399900000000000
      -0.399900000000000
      -0.399900000000000
      -0.399900000000000
      -0.399900000000000
      -0.399900000000000
      -0.399900000000000
      -0.399900000000000
      -0.399900000000000
      -0.399900000000000
      -0.399900000000000
      -0.399900000000000
      -0.399900000000000
      -0.399900000000000
      -0.399900000000000
      -0.399185714285714
      -0.398471428571428
      -0.397757142857143
      -0.397042857142857
      -0.396328571428571
      -0.395614285714286
      -0.394900000000000
      -0.394185714285714
      -0.393471428571428
      -0.392757142857143
      -0.392042857142857
      -0.391328571428571
      -0.390614285714286
      -0.389900000000000
      -0.389185714285714
      -0.388471428571428
      -0.387757142857143
      -0.387042857142857
      -0.386328571428571
      -0.385614285714286
      -0.384900000000000
      -0.384185714285714
      -0.383471428571429
      -0.382757142857143
      -0.382042857142857
      -0.381328571428571
      -0.380614285714286
      -0.379900000000000
      -0.379185714285714
      -0.378471428571428
      -0.377757142857143
      -0.377042857142857
      -0.376328571428571
      -0.375614285714286
      -0.374900000000000
      -0.374185714285714
      -0.373471428571429
      -0.372757142857143
      -0.372042857142857
      -0.371328571428571
      -0.370614285714286
      -0.369900000000000
      -0.369185714285714
      -0.368471428571429
      -0.367757142857143
      -0.367042857142857
      -0.366328571428571
      -0.365614285714286
      -0.364900000000000
      -0.364185714285714
      -0.363471428571429
      -0.362757142857143
      -0.362042857142857
      -0.361328571428571
      -0.360614285714286
      -0.359900000000000
      -0.359185714285714
      -0.358471428571429
      -0.357757142857143
      -0.357042857142857
      -0.356328571428571
      -0.355614285714286
      -0.354900000000000
      -0.354185714285714
      -0.353471428571429
      -0.352757142857143
      -0.352042857142857
      -0.351328571428571
      -0.350614285714286
      -0.349900000000000
      -0.349185714285714
      -0.348471428571429
      -0.347757142857143
      -0.347042857142857
      -0.346328571428571
      -0.345614285714286
      -0.344900000000000
      -0.344185714285714
      -0.343471428571429
      -0.342757142857143
      -0.342042857142857
      -0.341328571428571
      -0.340614285714286
      -0.339900000000000
      -0.339185714285714
      -0.338471428571429
      -0.337757142857143
      -0.337042857142857
      -0.336328571428571
      -0.335614285714286
      -0.334900000000000
      -0.334185714285714
      -0.333471428571429
      -0.332757142857143
      -0.332042857142857
      -0.331328571428571
      -0.330614285714286
      -0.329900000000000
      -0.329185714285714
      -0.328471428571429
      -0.327757142857143
      -0.327042857142857
      -0.326328571428571
      -0.325614285714286
      -0.324900000000000
      -0.324185714285714
      -0.323471428571429
      -0.322757142857143
      -0.322042857142857
      -0.321328571428571
      -0.320614285714286
      -0.319900000000000
      -0.319185714285714
      -0.318471428571429
      -0.317757142857143
      -0.317042857142857
      -0.316328571428571
      -0.315614285714286
      -0.314900000000000
      -0.314185714285714
      -0.313471428571429
      -0.312757142857143
      -0.312042857142857
      -0.311328571428571
      -0.310614285714286
      -0.309900000000000
      -0.309185714285714
      -0.308471428571429
      -0.307757142857143
      -0.307042857142857
      -0.306328571428571
      -0.305614285714286
      -0.304900000000000
      -0.304185714285714
      -0.303471428571429
      -0.302757142857143
      -0.302042857142857
      -0.301328571428572
      -0.300614285714286
      -0.299900000000000
      -0.299185714285714
      -0.298471428571429
      -0.297757142857143
      -0.297042857142857
      -0.296328571428572
      -0.295614285714286
      -0.294900000000000
      -0.294185714285714
      -0.293471428571429
      -0.292757142857143
      -0.292042857142857
      -0.291328571428572
      -0.290614285714286
      -0.289900000000000
      -0.289185714285714
      -0.288471428571429
      -0.287757142857143
      -0.287042857142857
      -0.286328571428572
      -0.285614285714286
      -0.284900000000000
      -0.284185714285714
      -0.283471428571429
      -0.282757142857143
      -0.282042857142857
      -0.281328571428572
      -0.280614285714286
      -0.279900000000000
      -0.279185714285714
      -0.278471428571429
      -0.277757142857143
      -0.277042857142857
      -0.276328571428572
      -0.275614285714286
      -0.274900000000000
      -0.274185714285714
      -0.273471428571429
      -0.272757142857143
      -0.272042857142857
      -0.271328571428572
      -0.270614285714286
      -0.269900000000000
      -0.269185714285714
      -0.268471428571429
      -0.267757142857143
      -0.267042857142857
      -0.266328571428572
      -0.265614285714286
      -0.264900000000000
      -0.264185714285714
      -0.263471428571429
      -0.262757142857143
      -0.262042857142857
      -0.261328571428572
      -0.260614285714286
      -0.259900000000000
      -0.259185714285714
      -0.258471428571429
      -0.257757142857143
      -0.257042857142857
      -0.256328571428572
      -0.255614285714286
      -0.254900000000000
      -0.254185714285714
      -0.253471428571429
      -0.252757142857143
      -0.252042857142857
      -0.251328571428572
      -0.250614285714286
      -0.249900000000000
      -0.249185714285714
      -0.248471428571429
      -0.247757142857143
      -0.247042857142857
      -0.246328571428572
      -0.245614285714286
      -0.244900000000000
      -0.244185714285714
      -0.243471428571429
      -0.242757142857143
      -0.242042857142857
      -0.241328571428572
      -0.240614285714286
      -0.239900000000000
      -0.239185714285714
      -0.238471428571429
      -0.237757142857143
      -0.237042857142857
      -0.236328571428572
      -0.235614285714286
      -0.234900000000000
      -0.234185714285714
      -0.233471428571429
      -0.232757142857143
      -0.232042857142857
      -0.231328571428572
      -0.230614285714286
      -0.229900000000000
      -0.229185714285715
      -0.228471428571429
      -0.227757142857143
      -0.227042857142857
      -0.226328571428572
      -0.225614285714286
      -0.224900000000000
      -0.224185714285715
      -0.223471428571429
      -0.222757142857143
      -0.222042857142857
      -0.221328571428572
      -0.220614285714286
      -0.219900000000000
      -0.219185714285714
      -0.218471428571429
      -0.217757142857143
      -0.217042857142857
      -0.216328571428572
      -0.215614285714286
      -0.214900000000000
      -0.214185714285715
      -0.213471428571429
      -0.212757142857143
      -0.212042857142857
      -0.211328571428572
      -0.210614285714286
      -0.209900000000000
      -0.209185714285715
      -0.208471428571429
      -0.207757142857143
      -0.207042857142857
      -0.206328571428572
      -0.205614285714286
      -0.204900000000000
      -0.204185714285715
      -0.203471428571429
      -0.202757142857143
      -0.202042857142857
      -0.201328571428572
      -0.200614285714286
      -0.199900000000000
      -0.199185714285715
      -0.198471428571429
      -0.197757142857143
      -0.197042857142857
      -0.196328571428572
      -0.195614285714286
      -0.194900000000000
      -0.194185714285715
      -0.193471428571429
      -0.192757142857143
      -0.192042857142857
      -0.191328571428572
      -0.190614285714286
      -0.189900000000000
      -0.189185714285715
      -0.188471428571429
      -0.187757142857143
      -0.187042857142857
      -0.186328571428572
      -0.185614285714286
      -0.184900000000000
      -0.184185714285715
      -0.183471428571429
      -0.182757142857143
      -0.182042857142857
      -0.181328571428572
      -0.180614285714286
      -0.179900000000000
      -0.179185714285715
      -0.178471428571429
      -0.177757142857143
      -0.177042857142857
      -0.176328571428572