/*--------------------------------*- C++ -*----------------------------------*\
| =========                 |                                                 |
| \\      /  F ield         | OpenFOAM: The Open Source CFD Toolbox           |
|  \\    /   O peration     | Version:  2206                                  |
|   \\  /    A nd           | Website:  www.openfoam.com                      |
|    \\/     M anipulation  |                                                 |
\*---------------------------------------------------------------------------*/
FoamFile
{
    version	2.0;
    format	ascii;
    class	dictionary;
    object	waveProperties;
}
// * * * * * * * * * * * * * * * * * * * * * * * * * * * * * * * * * * * * * //

seaLevel            0;

relaxationNames     ( inlet );

initializationName  init;

inletCoeffs
{
    waveType            streamFunction;
    N                   32;
    Tsoft               2;
    depth               0.4;
    phi                 0;
    height              0.125;

    specifyPeriod       true;
    period              1.9999999173941;

    specifyEuler        false;
    stokesVelocity      0;

    omega               3.1415927833468;
    waveNumber          (1.6589775 0 0);
    uBar                1.9174361475421;
    A                   nonuniform List<scalar>
    32
    (
        0.05699203274306
        0.017723266289024
        0.0049828584173083
        0.0014661862502656
        0.00046255720767762
        0.00015478088159725
        5.4091028962117e-05
        1.9511657029707e-05
        7.2084763054351e-06
        2.71344849463e-06
        1.0369580057596e-06
        4.0124835930566e-07
        1.5689603987999e-07
        6.1898970902258e-08
        2.4608652016076e-08
        9.8491992808824e-09
        3.9652074847308e-09
        1.6046932523196e-09
        6.5243199500897e-10
        2.6637250957291e-10
        1.0916302360942e-10
        4.4889336956047e-11
        1.8516525992667e-11
        7.6597181094982e-12
        3.1768725012847e-12
        1.320813573421e-12
        5.5042156991279e-13
        2.3001035276247e-13
        9.6659538782172e-14
        4.1547640037312e-14
        1.9904127693112e-14
        1.421622656124e-14
    );
    B                   nonuniform List<scalar>
    32
    (
        0.29431883370445
        0.09063569797988
        0.018985975828142
        0.0024669935808291
        2.5003106294075e-05
        -7.619266866324e-05
        -1.8136501732829e-05
        -9.4578689581138e-07
        6.4619389623134e-07
        2.2656225281488e-07
        3.1328117317669e-08
        -2.3566205529835e-09
        -2.1534278959611e-09
        -4.6373217144309e-10
        -1.7013288482822e-11
        1.9275205063812e-11
        6.2741490873799e-12
        7.5732197433491e-13
        -1.1357144991884e-13
        -7.1256317865992e-14
        -1.3892866384112e-14
        -1.2656111083728e-16
        5.8613153280084e-16
        3.0639312081101e-16
        -4.5351953917048e-17
        3.682213534727e-17
        -5.6628244090654e-17
        1.5569539984198e-16
        -2.2773303058355e-16
        1.8241211762154e-16
        -5.9951394143958e-17
        -3.7787276819612e-18
    );

    relaxationZone
    {
        relaxationScheme    Spatial;
        relaxationShape     Rectangular;
        beachType           Empty;
        relaxType           INLET;
        startX              ( -4.7 -1 0 );
        endX                ( -0.7 1 0 );
        orientation         ( 1 0 0 );
    }
}

initCoeffs
{
    waveType            potentialCurrent;
    U                   ( 0 0 0 );
    Tsoft               2;
}



// ************************************************************************* //
